<?xml version="1.0" encoding="UTF-8"?>

<!-- generated on 01/11/21 17:19:38 by Eclipse SUMO duarouter Version 1.6.0
<configuration xmlns:xsi="http://www.w3.org/2001/XMLSchema-instance" xsi:noNamespaceSchemaLocation="http://sumo.dlr.de/xsd/duarouterConfiguration.xsd">

    <input>
        <net-file value="example.net.xml"/>
        <route-files value="example.flow.xml"/>
    </input>

    <output>
        <output-file value="example.rou.xml"/>
        <alternatives-output value="example.rou.alt.xml"/>
    </output>

</configuration>
-->

<routes xmlns:xsi="http://www.w3.org/2001/XMLSchema-instance" xsi:noNamespaceSchemaLocation="http://sumo.dlr.de/xsd/routes_file.xsd">
    <vehicle id="route1.0" depart="0.00" departLane="0" color="yellow">
        <route edges="D1 D2 D3 D4 D5 D6"/>
    </vehicle>
    <vehicle id="route2.0" depart="0.00" departLane="1" color="yellow">
        <route edges="D1 D2 D3 D4 D5 D6"/>
    </vehicle>
</routes>
